GridLAB-D/Modified 6-Node Base Case/GLD Results/test_assets_curr.csv
# test_assets_curr.csv run at 2000-01-01 00:00:00 EST on 21 links,,,,,,,,,,,,
link_name,currA_mag,currA_angle,currB_mag,currB_angle,currC_mag,currC_angle,,,,,,
overhead_line:9,384.213594,-0.652667,379.780015,3.572209,399.237893,1.471357,,-37.39506453,,-155.3275008,,84.30254626
transformer:11,385.369637,-0.656256,380.465215,3.576591,397.455121,1.470716,,-37.60069908,,-155.0764307,,84.26581966
overhead_line:13,1217.099315,-1.16298,1107.368167,3.04796,1162.158981,0.936307,,-66.63384566,,174.6352441,,53.64643943
overhead_line:16,123.579155,-1.173033,111.625139,3.039994,117.59278,0.927015,,-67.20984013,,174.1788259,,53.11404705
overhead_line:18,123.579155,-1.173033,111.625139,3.039994,117.59278,0.927015,,-67.20984013,,174.1788259,,53.11404705
